% ------------- SU2 configuration file for Euler simulation -------------%

% ------------------------- Problem Definition --------------------------%
SOLVER= EULER
MATH_PROBLEM= DISCRETE_ADJOINT
RESTART_SOL= NO

% -------------------- COMPRESSIBLE FREE-STREAM DEFINITION --------------------%
%
MACH_NUMBER= 0.8395
%
AOA= 3.06
%
FREESTREAM_PRESSURE= 101325.0
%
FREESTREAM_TEMPERATURE= 288.15
% -------------------------- CL DRIVER DEFINITION -----------------------------%
%
FIXED_CL_MODE= YES
%
TARGET_CL= 0.2809
%
DCL_DALPHA= 0.1
%
UPDATE_AOA_ITER_LIMIT= 150
%
ITER_DCL_DALPHA= 500

% ---------------------- REFERENCE VALUE DEFINITION ---------------------------%

REF_ORIGIN_MOMENT_X = 0.15
REF_ORIGIN_MOMENT_Y = 0.00
REF_ORIGIN_MOMENT_Z = 0.00
%
% Reference length for pitching, rolling, and yawing non-dimensional moment
REF_LENGTH= 0.6
%
% Reference area for force coefficients (0 implies automatic calculation)
REF_AREA= 0
%
% Compressible flow non-dimensionalization (DIMENSIONAL, FREESTREAM_PRESS_EQ_ONE,
%                              FREESTREAM_VEL_EQ_MACH, FREESTREAM_VEL_EQ_ONE)
REF_DIMENSIONALIZATION= FREESTREAM_PRESS_EQ_ONE

% -------------------- Marker Definition --------------------------------%
% Marker of the Euler boundary (0 implies no marker)
MARKER_EULER= ( airfoil )
%
% Marker of the far field (0 implies no marker)
MARKER_FAR= ( farfield )
%
% Marker of symmetry boundary (0 implies no marker)
MARKER_SYM= ( symmetry )
%
% Marker of the surface which is going to be plotted or designed
MARKER_PLOTTING= ( airfoil )
%
% Marker of the surface where the functional (Cd, Cl, etc.) will be evaluated
MARKER_MONITORING= ( airfoil )

% ------------------------- Numerics ------------------------------------%
OBJECTIVE_FUNCTION= DRAG
ITER= 3000
% ------------------------ LINEAR SOLVER DEFINITION ---------------------------%
LINEAR_SOLVER= FGMRES
LINEAR_SOLVER_PREC= ILU 
LINEAR_SOLVER_ERROR= 1E-6
LINEAR_SOLVER_ITER= 10
% --------------------- FLOW NUMERICAL METHOD DEFINITION ----------------------%
CONV_NUM_METHOD_FLOW= JST
JST_SENSOR_COEFF= ( 0.5, 0.02 )
TIME_DISCRE_FLOW= EULER_IMPLICIT
%
% ----------------- ADJOINT-FLOW NUMERICAL METHOD DEFINITION ------------------%
CONV_NUM_METHOD_ADJFLOW= JST
ADJ_JST_SENSOR_COEFF= ( 0.5, 0.02 )
CFL_REDUCTION_ADJFLOW= 0.75
TIME_DISCRE_ADJFLOW= EULER_IMPLICIT
% --------------------------- CONVERGENCE PARAMETERS --------------------------&
CONV_RESIDUAL_MINVAL= -12
CONV_STARTITER= 20
CONV_CAUCHY_ELEMS= 100
CONV_CAUCHY_EPS= 1E-10


% -------------------- Direct Solver Input Files ------------------------%
MESH_FILENAME= nacasc_ffd.su2
MESH_OUT_FILENAME= mesh_out.su2
SOLUTION_FILENAME= solution_flow.dat
SOLUTION_ADJ_FILENAME= solution_adj.dat
MESH_FORMAT= SU2
TABULAR_FORMAT= CSV
CONV_FILENAME= history
RESTART_FILENAME= restart_flow.dat
RESTART_ADJ_FILENAME= restart_adj.dat
VOLUME_FILENAME= flow
VOLUME_ADJ_FILENAME= adjoint
GRAD_OBJFUNC_FILENAME= of_grad.dat
SURFACE_FILENAME= surface_flow
SURFACE_ADJ_FILENAME= surface_adjoint
OUTPUT_FILES= (RESTART, PARAVIEW, SURFACE_PARAVIEW, SURFACE_CSV)
SCREEN_OUTPUT= (INNER_ITER, RMS_DENSITY, RMS_ENERGY, LIFT, DRAG)
HISTORY_OUTPUT= (ITER, RMS_RES, LIFT, DRAG, MOMENT_Y, CFL_NUMBER, Y_PLUS)

% -------------------- Solver Parameters --------------------------------%
NUM_METHOD_GRAD= GREEN_GAUSS
CFL_NUMBER= 20
CFL_ADAPT= YES
CFL_ADAPT_PARAM= ( 0.5, 1.5, 1.0, 100.0 )
RK_ALPHA_COEFF= (0.66667, 0.66667, 1.000000)

% ---------------------- Free-Form Deformation ---------------------------%
FFD_TOLERANCE= 1E-10
FFD_ITERATIONS= 500
FFD_DEFINITION= (WING, -0.01, -0.01, -0.0664032, 0.817939, -0.01, -0.0664032, 0.817939, 1.01, -0.0664032, -0.01, 1.01, -0.0664032, -0.01, -0.01, 0.0663608, 0.817939, -0.01, 0.0663608, 0.817939, 1.01, 0.0663608, -0.01, 1.01, 0.0663608)
FFD_DEGREE= (7, 5, 1)
FFD_CONTINUITY= 2ND_DERIVATIVE
FFD_SYMMETRY_PLANE= YES

% -------------------- Geometry Evaluation -------------------------------%
GEO_MARKER= ( airfoil )
GEO_DESCRIPTION= WING
GEO_LOCATION_STATIONS= (0.0, 0.25, 0.5, 0.75, 0.958)
GEO_BOUNDS= (0, 1.0)
GEO_PLOT_STATIONS= YES
GEO_NUMBER_STATIONS= 25
GEO_MODE= FUNCTION


% -------------------- Design Variables & Objective ----------------------%
DV_KIND= FFD_SETTING
DV_MARKER= ( airfoil )
DV_PARAM= ( WING, 1, 0, 0, 0.0, 0.0, 1.0 )
DV_VALUE= 0.0
DEFORM_LINEAR_SOLVER= FGMRES
DEFORM_LINEAR_SOLVER_ITER= 500
DEFORM_LINEAR_SOLVER_ERROR= 1E-14
DEFORM_STIFFNESS_TYPE= WALL_DISTANCE


OPT_OBJECTIVE= DRAG
OPT_CONSTRAINT= (STATION1_THICKNESS > 0.112765) * 0.001; (STATION2_THICKNESS > 0.095832) * 0.001; (STATION3_THICKNESS > 0.0789049) * 0.001; (STATION4_THICKNESS > 0.0620001) * 0.001; (STATION5_THICKNESS > 0.0479262) * 0.001 
OPT_GRADIENT_FACTOR= 1E-5
OPT_RELAX_FACTOR= 100
OPT_ITERATIONS= 200
OPT_ACCURACY= 1E-7
OPT_BOUND_UPPER= 1
OPT_BOUND_LOWER= -1
% FFD_CONTROL_POINT (Z)
DEFINITION_DV= ( 11, 1.0 | airfoil | WING, 0, 0, 0, 0.0, 0.0, 1.0 ); ( 11, 1.0 | airfoil | WING, 1, 0, 0, 0.0, 0.0, 1.0 ); ( 11, 1.0 | airfoil | WING, 2, 0, 0, 0.0, 0.0, 1.0 ); ( 11, 1.0 | airfoil | WING, 3, 0, 0, 0.0, 0.0, 1.0 ); ( 11, 1.0 | airfoil | WING, 4, 0, 0, 0.0, 0.0, 1.0 ); ( 11, 1.0 | airfoil | WING, 5, 0, 0, 0.0, 0.0, 1.0 ); ( 11, 1.0 | airfoil | WING, 6, 0, 0, 0.0, 0.0, 1.0 ); ( 11, 1.0 | airfoil | WING, 7, 0, 0, 0.0, 0.0, 1.0 ); ( 11, 1.0 | airfoil | WING, 0, 1, 0, 0.0, 0.0, 1.0 ); ( 11, 1.0 | airfoil | WING, 1, 1, 0, 0.0, 0.0, 1.0 ); ( 11, 1.0 | airfoil | WING, 2, 1, 0, 0.0, 0.0, 1.0 ); ( 11, 1.0 | airfoil | WING, 3, 1, 0, 0.0, 0.0, 1.0 ); ( 11, 1.0 | airfoil | WING, 4, 1, 0, 0.0, 0.0, 1.0 ); ( 11, 1.0 | airfoil | WING, 5, 1, 0, 0.0, 0.0, 1.0 ); ( 11, 1.0 | airfoil | WING, 6, 1, 0, 0.0, 0.0, 1.0 ); ( 11, 1.0 | airfoil | WING, 7, 1, 0, 0.0, 0.0, 1.0 ); ( 11, 1.0 | airfoil | WING, 0, 2, 0, 0.0, 0.0, 1.0 ); ( 11, 1.0 | airfoil | WING, 1, 2, 0, 0.0, 0.0, 1.0 ); ( 11, 1.0 | airfoil | WING, 2, 2, 0, 0.0, 0.0, 1.0 ); ( 11, 1.0 | airfoil | WING, 3, 2, 0, 0.0, 0.0, 1.0 ); ( 11, 1.0 | airfoil | WING, 4, 2, 0, 0.0, 0.0, 1.0 ); ( 11, 1.0 | airfoil | WING, 5, 2, 0, 0.0, 0.0, 1.0 ); ( 11, 1.0 | airfoil | WING, 6, 2, 0, 0.0, 0.0, 1.0 ); ( 11, 1.0 | airfoil | WING, 7, 2, 0, 0.0, 0.0, 1.0 ); ( 11, 1.0 | airfoil | WING, 0, 3, 0, 0.0, 0.0, 1.0 ); ( 11, 1.0 | airfoil | WING, 1, 3, 0, 0.0, 0.0, 1.0 ); ( 11, 1.0 | airfoil | WING, 2, 3, 0, 0.0, 0.0, 1.0 ); ( 11, 1.0 | airfoil | WING, 3, 3, 0, 0.0, 0.0, 1.0 ); ( 11, 1.0 | airfoil | WING, 4, 3, 0, 0.0, 0.0, 1.0 ); ( 11, 1.0 | airfoil | WING, 5, 3, 0, 0.0, 0.0, 1.0 ); ( 11, 1.0 | airfoil | WING, 6, 3, 0, 0.0, 0.0, 1.0 ); ( 11, 1.0 | airfoil | WING, 7, 3, 0, 0.0, 0.0, 1.0 ); ( 11, 1.0 | airfoil | WING, 0, 4, 0, 0.0, 0.0, 1.0 ); ( 11, 1.0 | airfoil | WING, 1, 4, 0, 0.0, 0.0, 1.0 ); ( 11, 1.0 | airfoil | WING, 2, 4, 0, 0.0, 0.0, 1.0 ); ( 11, 1.0 | airfoil | WING, 3, 4, 0, 0.0, 0.0, 1.0 ); ( 11, 1.0 | airfoil | WING, 4, 4, 0, 0.0, 0.0, 1.0 ); ( 11, 1.0 | airfoil | WING, 5, 4, 0, 0.0, 0.0, 1.0 ); ( 11, 1.0 | airfoil | WING, 6, 4, 0, 0.0, 0.0, 1.0 ); ( 11, 1.0 | airfoil | WING, 7, 4, 0, 0.0, 0.0, 1.0 ); ( 11, 1.0 | airfoil | WING, 0, 5, 0, 0.0, 0.0, 1.0 ); ( 11, 1.0 | airfoil | WING, 1, 5, 0, 0.0, 0.0, 1.0 ); ( 11, 1.0 | airfoil | WING, 2, 5, 0, 0.0, 0.0, 1.0 ); ( 11, 1.0 | airfoil | WING, 3, 5, 0, 0.0, 0.0, 1.0 ); ( 11, 1.0 | airfoil | WING, 4, 5, 0, 0.0, 0.0, 1.0 ); ( 11, 1.0 | airfoil | WING, 5, 5, 0, 0.0, 0.0, 1.0 ); ( 11, 1.0 | airfoil | WING, 6, 5, 0, 0.0, 0.0, 1.0 ); ( 11, 1.0 | airfoil | WING, 7, 5, 0, 0.0, 0.0, 1.0 ); ( 11, 1.0 | airfoil | WING, 0, 0, 1, 0.0, 0.0, 1.0 ); ( 11, 1.0 | airfoil | WING, 1, 0, 1, 0.0, 0.0, 1.0 ); ( 11, 1.0 | airfoil | WING, 2, 0, 1, 0.0, 0.0, 1.0 ); ( 11, 1.0 | airfoil | WING, 3, 0, 1, 0.0, 0.0, 1.0 ); ( 11, 1.0 | airfoil | WING, 4, 0, 1, 0.0, 0.0, 1.0 ); ( 11, 1.0 | airfoil | WING, 5, 0, 1, 0.0, 0.0, 1.0 ); ( 11, 1.0 | airfoil | WING, 6, 0, 1, 0.0, 0.0, 1.0 ); ( 11, 1.0 | airfoil | WING, 7, 0, 1, 0.0, 0.0, 1.0 ); ( 11, 1.0 | airfoil | WING, 0, 1, 1, 0.0, 0.0, 1.0 ); ( 11, 1.0 | airfoil | WING, 1, 1, 1, 0.0, 0.0, 1.0 ); ( 11, 1.0 | airfoil | WING, 2, 1, 1, 0.0, 0.0, 1.0 ); ( 11, 1.0 | airfoil | WING, 3, 1, 1, 0.0, 0.0, 1.0 ); ( 11, 1.0 | airfoil | WING, 4, 1, 1, 0.0, 0.0, 1.0 ); ( 11, 1.0 | airfoil | WING, 5, 1, 1, 0.0, 0.0, 1.0 ); ( 11, 1.0 | airfoil | WING, 6, 1, 1, 0.0, 0.0, 1.0 ); ( 11, 1.0 | airfoil | WING, 7, 1, 1, 0.0, 0.0, 1.0 ); ( 11, 1.0 | airfoil | WING, 0, 2, 1, 0.0, 0.0, 1.0 ); ( 11, 1.0 | airfoil | WING, 1, 2, 1, 0.0, 0.0, 1.0 ); ( 11, 1.0 | airfoil | WING, 2, 2, 1, 0.0, 0.0, 1.0 ); ( 11, 1.0 | airfoil | WING, 3, 2, 1, 0.0, 0.0, 1.0 ); ( 11, 1.0 | airfoil | WING, 4, 2, 1, 0.0, 0.0, 1.0 ); ( 11, 1.0 | airfoil | WING, 5, 2, 1, 0.0, 0.0, 1.0 ); ( 11, 1.0 | airfoil | WING, 6, 2, 1, 0.0, 0.0, 1.0 ); ( 11, 1.0 | airfoil | WING, 7, 2, 1, 0.0, 0.0, 1.0 ); ( 11, 1.0 | airfoil | WING, 0, 3, 1, 0.0, 0.0, 1.0 ); ( 11, 1.0 | airfoil | WING, 1, 3, 1, 0.0, 0.0, 1.0 ); ( 11, 1.0 | airfoil | WING, 2, 3, 1, 0.0, 0.0, 1.0 ); ( 11, 1.0 | airfoil | WING, 3, 3, 1, 0.0, 0.0, 1.0 ); ( 11, 1.0 | airfoil | WING, 4, 3, 1, 0.0, 0.0, 1.0 ); ( 11, 1.0 | airfoil | WING, 5, 3, 1, 0.0, 0.0, 1.0 ); ( 11, 1.0 | airfoil | WING, 6, 3, 1, 0.0, 0.0, 1.0 ); ( 11, 1.0 | airfoil | WING, 7, 3, 1, 0.0, 0.0, 1.0 ); ( 11, 1.0 | airfoil | WING, 0, 4, 1, 0.0, 0.0, 1.0 ); ( 11, 1.0 | airfoil | WING, 1, 4, 1, 0.0, 0.0, 1.0 ); ( 11, 1.0 | airfoil | WING, 2, 4, 1, 0.0, 0.0, 1.0 ); ( 11, 1.0 | airfoil | WING, 3, 4, 1, 0.0, 0.0, 1.0 ); ( 11, 1.0 | airfoil | WING, 4, 4, 1, 0.0, 0.0, 1.0 ); ( 11, 1.0 | airfoil | WING, 5, 4, 1, 0.0, 0.0, 1.0 ); ( 11, 1.0 | airfoil | WING, 6, 4, 1, 0.0, 0.0, 1.0 ); ( 11, 1.0 | airfoil | WING, 7, 4, 1, 0.0, 0.0, 1.0 ); ( 11, 1.0 | airfoil | WING, 0, 5, 1, 0.0, 0.0, 1.0 ); ( 11, 1.0 | airfoil | WING, 1, 5, 1, 0.0, 0.0, 1.0 ); ( 11, 1.0 | airfoil | WING, 2, 5, 1, 0.0, 0.0, 1.0 ); ( 11, 1.0 | airfoil | WING, 3, 5, 1, 0.0, 0.0, 1.0 ); ( 11, 1.0 | airfoil | WING, 4, 5, 1, 0.0, 0.0, 1.0 ); ( 11, 1.0 | airfoil | WING, 5, 5, 1, 0.0, 0.0, 1.0 ); ( 11, 1.0 | airfoil | WING, 6, 5, 1, 0.0, 0.0, 1.0 ); ( 11, 1.0 | airfoil | WING, 7, 5, 1, 0.0, 0.0, 1.0 )
 

